rm -f gem5.opt.sc
rm -f *.o
rm -f -r m5out
rm -f ../systemc/*.o
rm -f cache/*.o
gem5 Simulator System.  http://gem5.org
gem5 is copyrighted software; use the --copyright option for details.

gem5 compiled Feb 22 2016 11:32:39
gem5 started Mar  3 2016 14:35:11
gem5 executing on uzair-HP-ProDesk-600-G1-TWR, pid 3563
command line: ../../build/ARM/gem5.fast ../../configs/example/fs.py --cpu-type=atomic --num-cpu=4 --mem-type=SimpleMemory --mem-size=512MB --mem-channels=1 --machine-type=VExpress_EMM64 --dtb-filename=vexpress.aarch64.20140821.dtb --kernel=vmlinux.aarch64.20140821 --disk-image=linaro-minimal-aarch64.img --arm-iset=aarch64 --systemc-cache --cacheline_size=8

Global frequency set at 1000000000000 ticks per second
info: kernel located at: /home/uzair/aarch-system-2014-10/binaries/vmlinux.aarch64.20140821
g++ -I../../build/ARM -L../../build/ARM -I../systemc/ -I/usr/local/systemc-2.3.1//include -L/usr/local/systemc-2.3.1//lib-linux64 -std=c++0x -g -DSC_INCLUDE_DYNAMIC_PROCESSES -DDEBUG -DTRACING_ON -DNUM_CPUS=4 -DWORD_SIZE=8 -DL2_CACHE -c -o main.o main.cc
